<?xml version="1.0" encoding="UTF-8"?>
<!-- generated on 2021-09-07 11:57:54.858425 by $Id$ UNKNOWN
  options: -n /home/rod/Desktop/sumo-modular-framework/examples/generate_sim_data/simulation_env/osm.net.xml -t /home/rod/Desktop/sumo-modular-framework/examples/generate_sim_data/simulation_env/polys.add.xml -o /home/rod/Desktop/sumo-modular-framework/examples/generate_sim_data/simulation_env/districts.taz.xml
-->
<tazs xmlns:xsi="http://www.w3.org/2001/XMLSchema-instance" xsi:noNamespaceSchemaLocation="http://sumo.dlr.de/xsd/taz_file.xsd">
    <taz id="poly_104" color="255,0,0,100" edges="-4973730#1 21063788#0 21063788#3 238902679#3 328061951#3 342168272 4973730#0 717944155#1 717955854"/>
    <taz id="poly_105" color="255,0,0,100" edges="-23011074 23011073#1 238902679#3"/>
    <taz id="poly_106" color="255,0,0,100" edges="-27601986 -4984534 -5049374#1 -5049374#6 -515073666#1 27601986 37524434 37524435 5049374#2 515073666#0 515073666#2 561770405#1 561770407#0 561770410 80865280#0"/>
    <taz id="poly_114" color="255,0,0,100" edges="-164481037#1 -164481041 -23011073#0 -23011074 -238902657#2 -238902685#1 21063788#3 23011073#1 238086623 238902657#0 238902665 238902679#0 238902679#3 238902682 238902685#0 249469998 290003280 318656085 318656086 4984745 5004452#0 5004452#1 5004452#2 5049374#7 5049375#0 5049376#1 539308469 717944151 717944153 717944154 717955855 717955856 75429312#1"/>
    <taz id="poly_115" color="255,0,0,100" edges="-164481037#1 -243705727#1 -249470002 -308284426#1 -308284427#2 -5049374#6 233981122 238086623 238086628 238902665 243705727#0 249469998 249470002 249470011 290003279 290003280 30677574 308284426#0 308284427#0 308284429#1 328241502 37524435 4983969#0 5049374#2 5049374#7 561770405#0 561770405#1 561770406 561770407#0 561770410 60660263 682854380 682854381 682854404 717944152 737126620 737126634 86166122"/>
    <taz id="poly_116" color="255,0,0,100" edges="-308284427#2 308284427#0"/>
    <taz id="poly_12" color="255,0,0,100" edges="-101203188 23326767"/>
    <taz id="poly_122" color="255,0,0,100" edges="238086623 290003280"/>
    <taz id="poly_123" color="255,0,0,100" edges="-238902685#1 -75313321#1 238086623 238902685#0 290003280"/>
    <taz id="poly_124" color="255,0,0,100" edges="-75313321#1 238902685#0 718188324"/>
    <taz id="poly_13" color="255,0,0,100" edges="-101203188 -15235404 -15235411 -30490088 -431246732 -431246733#1 -431246785#1 15235403#0 15235403#1 15235404 15235411 176374651 186176847 23326767 30490088 431246732 431246733#0 431246785#0"/>
    <taz id="poly_20" color="255,0,0,100" edges="-101203188 -23035952#3 -23329938 -26813482 -617711514 176374650#0 176374650#1 23035952#0 23326767 23329938 23329939 26813482 617711514"/>
    <taz id="poly_21" color="255,0,0,100" edges="-23036041#1 -23036041#5 -23036047#1 -23329938 -55379618#1 -617711514 -686380239#2 -8585005#2 176064637#0 176064637#1 176064637#2 228255883#0 228255884#0 228255884#2 23036041#0 23036041#2 23036047#1 23329936 23329938 261607997#0 261607997#1 261607998 55379618#0 617711514 617711517 617711518 617711519 617711520 727900568 727902834 727902835 733747314 733747316 801412351 8585005#0"/>
    <taz id="poly_22" color="255,0,0,100" edges="-15235411 -23036041#5 -23036041#6 -23036085#1 -431246745 15235411 15235412#0 23036041#2 23036041#6 23036045#0 23036049 60471386"/>
    <taz id="poly_29" color="255,0,0,100" edges="-23035952#3 -23035952#4 -23035972#1 -270122698#2 -270122698#4 -270122698#5 23035952#0 23035952#4 23035972#0 270122698#2 270122698#4 270122698#5"/>
    <taz id="poly_30" color="255,0,0,100" edges="-19727592 -224470082 -23036047#1 -23036048#3 -270122698#1 -270122698#2 -5058128#1 -8585005#2 -8585005#4 176690219#1 176690219#3 176690220#0 176690253#0 19727589#0 224470082 228255883#0 228255884#0 23036047#1 23036048#0 270122698#0 270122698#2 5058128#1 744168636#0 8585005#0 8585005#3"/>
    <taz id="poly_31" color="255,0,0,100" edges="-19727592 -23036046#0 -23036048#3 -23036050 -27601947 -8585005#4 15235412#0 176690238#0 176690253#0 19727589#0 23036044#0 23036045#0 23036046#0 23036048#0 23036049 23036050 60471386 60471392#0"/>
    <taz id="poly_39" color="255,0,0,100" edges="176690220#0 295692545"/>
    <taz id="poly_4" color="255,0,0,100" edges="-190309447 -431246733#1 190309447 431246733#0"/>
    <taz id="poly_40" color="255,0,0,100" edges="-18949537 -23036043#2 -27601947 -295692545 -318656081#3 15235421 16234307 169241041#0 176690218 176690222#1 176690222#3 179137924 18949537 23036043#0 23036044#0 270122696#1 295692545 318656081#0 4981504#0 60471392#0 744168638"/>
    <taz id="poly_48" color="255,0,0,100" edges="-296576678#1 -296576680#3 -624437995 295692545 296576677#0 296576679#0 438900529#0"/>
    <taz id="poly_49" color="255,0,0,100" edges="-165400234 -176690221#1 -18949537 -18949544 -295692545 -296206244#1 -296556216#1 -30662361#4 16234307 165400232 165400234 176690221#0 176690222#3 18949537 18949544 296206244#0 296556216#0 296556219#0 30662361#0 30662362 30662363 438900529#0 4981504#0 744168641"/>
    <taz id="poly_50" color="255,0,0,100" edges="-27601947 60471392#0"/>
    <taz id="poly_56" color="255,0,0,100" edges="-165221455 -296576676#1 -5049400#2 165221455 295692544#0 5049400#0"/>
    <taz id="poly_57" color="255,0,0,100" edges="-19852375#1 -21870223#1 -296576676#1 -296576678#1 -296576680#3 -5049346#1 -5049346#4 -510239016#3 -5106153#4 13854786#0 13864691#0 19852375#0 21870223#0 295692544#0 296576677#0 296576679#0 5049346#0 5049346#3 5106153#0"/>
    <taz id="poly_58" color="255,0,0,100" edges="-176690221#1 -176724388#2 -18949545#1 -19852374#3 -19852375#1 -21870223#3 -296556210#1 -296556213#1 -30662361#4 -30662364 -32652607#2 -32652608#1 -8051474#3 176690221#0 176724388#0 18949545#0 19852374#0 19852375#0 21870218#0 21870223#2 227487139#0 22947419 24017939#0 296556213#0 296556219#0 30662361#0 30662364 32652607#0 32652608#0 8051474#0"/>
    <taz id="poly_59" color="255,0,0,100" edges="-27601947 60471392#0"/>
    <taz id="poly_65" color="255,0,0,100" edges="-13636727#1 -13636727#2 -165221455 -201817818#1 -5049350#3 -5049400#2 13636727#0 13636727#2 13804116 13804339#0 13804339#3 165221455 201817818#0 5049348#0 5049348#1 5049349#0 5049350#0 5049400#0 5049401#0"/>
    <taz id="poly_66" color="255,0,0,100" edges="-15429570#1 -15429577 -15429578#1 -30670371#2 -445395229#1 -5049346#1 -510239016#3 -8051475#1 -8051475#4 -8051475#6 13864691#0 15429570#0 15429575#0 15429577 15429578#0 18953135#6 296576675 30670371#0 445395222 445395231#0 5049346#0 5049347#0 5049347#4 5049401#0 8051475#0 8051475#2 8051475#5"/>
    <taz id="poly_67" color="255,0,0,100" edges="-227487138#2 -233574693#1 -30596405 -32652607#2 -32652608#1 -445395229#1 -4981430#1 -55379622#2 18953135#0 18953135#6 215136485 21870218#0 227487138#0 233574693#0 302374777 302374778#0 302374780 30596405 30770543#0 32652607#0 32652608#0 445395222 445395231#0 4981430#0 5147959#0 55379622#0 729565370#0 744168644#0"/>
    <taz id="poly_68" color="255,0,0,100" edges="-179137922#3 -30662365#1 -310980429#2 -32652606#3 -5000422#3 -505301155#1 -55379622#2 -759460659 179137922#0 227487139#0 227487140#0 32652606#0 4981272#0 4984535 5000422#0 55379622#0 729565370#0 744168637"/>
    <taz id="poly_69" color="255,0,0,100" edges="-27601947 60471392#0"/>
    <taz id="poly_72" color="255,0,0,100" edges="-33718247#1 -4973845#1 -4973845#4 -4990967#1 -4990967#3 33718247#0 4973760#0 4973845#0 4973845#2 4990967#0 4990967#2 55379623 718188323#0 718188323#1"/>
    <taz id="poly_73" color="255,0,0,100" edges="-2331704 -301077360 301077360 7931045"/>
    <taz id="poly_74" color="255,0,0,100" edges="-201817818#1 -301077360 -5049350#3 201817818#0 301077360 301077361 41361081 445395223 5049350#0"/>
    <taz id="poly_75" color="255,0,0,100" edges="-15437168#1 -16558815#1 -16558815#2 -30670371#2 -445395227#1 -4973787#3 -4973787#5 -5049341#0 -5049341#2 15437168#0 16558815#0 16558815#2 301077362#0 41361089#3 445395227#0 4973559#0 4973559#2 4973787#0 4973787#4 4981431#0 4981432#3 4981432#5 5049341#0 5049341#1 5049401#0 505301156"/>
    <taz id="poly_76" color="255,0,0,100" edges="-154112808#6 -16558815#1 -178878603 -249388667#2 -4973787#8 -4981430#1 -5049341#0 154112808#0 178878603 249388667#0 4973787#6 4981430#0 5049341#0 5049342#4"/>
    <taz id="poly_77" color="255,0,0,100" edges="-179137922#3 -249388667#2 -29088848#2 -30670370#2 -310980429#2 -4973556#3 -505301142#2 -505301143#2 179137922#0 249388667#0 29088848#0 30670370#0 4973556#0 4984535 5049343#0 505301141#0 505301142#0 505301143#0 505301144#0 505301145#0 55379625#0 609589075#0 8010118#0 9925453#0"/>
    <taz id="poly_78" color="255,0,0,100" edges="-27601947 -4973556#10 -4973556#3 -4973556#6 4973556#0 4973556#4 4973556#7 60471392#0 609589075#0 8010118#0"/>
    <taz id="poly_79" color="255,0,0,100" edges="-27601947 60471392#0"/>
    <taz id="poly_81" color="255,0,0,100" edges="-16189585#1 -438901846#0 -4973845#4 -4990967#1 -5049351#1 -5049351#2 -5122255#2 16189585#0 4973845#2 4990967#0 5049351#0 5049351#2 5049351#4 5122255#0"/>
    <taz id="poly_82" color="255,0,0,100" edges="-342168290#2 -438901846#0 -5049391#0 438901846#1 5049351#4 5049391#1"/>
    <taz id="poly_84" color="255,0,0,100" edges="-14508930#1 -14508930#2 -16558813#1 -16558813#3 -16558815#2 -21303435 -41361088#1 -41361088#3 -759460634 14508930#0 14508930#2 16558813#0 16558813#2 16558813#4 16558815#2 21303435 41361088#0 41361088#2 41361089#3 41361089#6 4981432#0 4981432#2 4981432#3 9099248 9226774#0"/>
    <taz id="poly_85" color="255,0,0,100" edges="-154112808#6 -154112808#8 -16558813#1 -41361088#4 -41361088#6 14154972 154112808#0 154112808#7 16558813#0 21309910#2 21309910#3 41361088#4 41361088#5 5049342#0 5049342#3 5049342#4 719037540#0 9099245 9099246#0 9099248 9226774#0"/>
    <taz id="poly_86" color="255,0,0,100" edges="-154112820#1 -180066666#1 -180066666#4 -5049367#3 -505301152#1 -744168635#2 -98440400#1 154109990#0 154109991 154112820#0 180066666#0 180066666#2 301397683#0 328061952#0 5049343#0 505301144#0 505301145#0 505301150#0 505301151#0 505301152#0 719037540#0 744168635#0 9925453#0"/>
    <taz id="poly_87" color="255,0,0,100" edges="-15495876 -328061950#2 -4973556#10 -4984536#3 -5004456 -5049367#3 -505301147#0 -505301147#1 -505301148 -505301149#2 -7972019#1 15495876 176370880#0 176370880#1 238955997#0 328061950#0 4973556#7 4984536#0 500278224 500278225 500278226 500278227#0 5004456 505301147#0 505301147#1 505301148 505301149#0 746501175#1 7972019#0 98440390"/>
    <taz id="poly_88" color="255,0,0,100" edges="-27601947 60471392#0"/>
    <taz id="poly_89" color="255,0,0,100" edges="-27601947 -627542583 239963902#0 60471392#0 627542583"/>
    <taz id="poly_92" color="255,0,0,100" edges="-23010935#5 -342168290#2 23010935#0 5049391#1"/>
    <taz id="poly_93" color="255,0,0,100" edges="-22652739#3 -23010935#5 -240899432 22652739#0 23010935#0 302507420#0 5049356#0"/>
    <taz id="poly_94" color="255,0,0,100" edges="-240899432 -302507419#1 -5049356#5 21309910#2 302507419#0 302507420#0 5049356#0"/>
    <taz id="poly_95" color="255,0,0,100" edges="-23044000#1 -302507418 -302507419#1 -328061953#3 -342168271 -4981348 -5051193 -5051196#0 -505301152#1 -9099244#2 -98440400#1 199395260 21309910#0 23044000#0 302507418 302507419#0 328061952#0 342168271 342308746#0 342308747#0 5051196#1 505301152#0 505301153#0 505301154#0 717944155#0 717955853 75313320#0 9099244#0 9099247#0 98440400#0"/>
    <taz id="poly_96" color="255,0,0,100" edges="-154112820#1 -15495876 -29088844 -328061950#2 -328061953#3 -4981346 -4984534 104290820#0 104290822#0 154112820#0 15495876 169348263#0 169348264#0 328061950#0 4981346 5051196#1 5107097 515073669#0 515073671#0 7972003#0 80865280#0"/>
    <taz id="poly_97" color="255,0,0,100" edges="-4984534 176370865 176370867 176370871 176370876 37524432 37524433#0 37524434 515073669#0 515073671#0 515073682 515073684 80865280#0"/>
    <taz id="poly_98" edges="-627542583 176370869 176370874 176370875#0 176370875#1 176370879 176374648#1 186176841#0 186176841#1 186176842 186176844 239963902#0 37524433#0 5056891 60471388 60471394#0 60520219#0 60520221 60520222#0 60673434 627542560#0 627542561 627542582 627542583 730037826 93266476#0"/>
</tazs>
