<additional xmlns:xsi="http://www.w3.org/2001/XMLSchema-instance" xsi:noNamespaceSchemaLocation="http://sumo.dlr.de/xsd/additional_file.xsd">
<poly id="poly_0" color="255,0,0,100" fill="1" layer="128.00" shape="0,0 250,0 250,250 0,250"/>
<poly id="poly_1" color="255,0,0,100" fill="1" layer="128.00" shape="0,250 250,250 250,500 0,500"/>
<poly id="poly_2" color="255,0,0,100" fill="1" layer="128.00" shape="0,500 250,500 250,750 0,750"/>
<poly id="poly_3" color="255,0,0,100" fill="1" layer="128.00" shape="0,750 250,750 250,1000 0,1000"/>
<poly id="poly_4" color="255,0,0,100" fill="1" layer="128.00" shape="0,1000 250,1000 250,1250 0,1250"/>
<poly id="poly_5" color="255,0,0,100" fill="1" layer="128.00" shape="0,1250 250,1250 250,1500 0,1500"/>
<poly id="poly_6" color="255,0,0,100" fill="1" layer="128.00" shape="0,1500 250,1500 250,1750 0,1750"/>
<poly id="poly_7" color="255,0,0,100" fill="1" layer="128.00" shape="0,1750 250,1750 250,2000 0,2000"/>
<poly id="poly_8" color="255,0,0,100" fill="1" layer="128.00" shape="0,2000 250,2000 250,2250 0,2250"/>
<poly id="poly_9" color="255,0,0,100" fill="1" layer="128.00" shape="250,0 500,0 500,250 250,250"/>
<poly id="poly_10" color="255,0,0,100" fill="1" layer="128.00" shape="250,250 500,250 500,500 250,500"/>
<poly id="poly_11" color="255,0,0,100" fill="1" layer="128.00" shape="250,500 500,500 500,750 250,750"/>
<poly id="poly_12" color="255,0,0,100" fill="1" layer="128.00" shape="250,750 500,750 500,1000 250,1000"/>
<poly id="poly_13" color="255,0,0,100" fill="1" layer="128.00" shape="250,1000 500,1000 500,1250 250,1250"/>
<poly id="poly_14" color="255,0,0,100" fill="1" layer="128.00" shape="250,1250 500,1250 500,1500 250,1500"/>
<poly id="poly_15" color="255,0,0,100" fill="1" layer="128.00" shape="250,1500 500,1500 500,1750 250,1750"/>
<poly id="poly_16" color="255,0,0,100" fill="1" layer="128.00" shape="250,1750 500,1750 500,2000 250,2000"/>
<poly id="poly_17" color="255,0,0,100" fill="1" layer="128.00" shape="250,2000 500,2000 500,2250 250,2250"/>
<poly id="poly_18" color="255,0,0,100" fill="1" layer="128.00" shape="500,0 750,0 750,250 500,250"/>
<poly id="poly_19" color="255,0,0,100" fill="1" layer="128.00" shape="500,250 750,250 750,500 500,500"/>
<poly id="poly_20" color="255,0,0,100" fill="1" layer="128.00" shape="500,500 750,500 750,750 500,750"/>
<poly id="poly_21" color="255,0,0,100" fill="1" layer="128.00" shape="500,750 750,750 750,1000 500,1000"/>
<poly id="poly_22" color="255,0,0,100" fill="1" layer="128.00" shape="500,1000 750,1000 750,1250 500,1250"/>
<poly id="poly_23" color="255,0,0,100" fill="1" layer="128.00" shape="500,1250 750,1250 750,1500 500,1500"/>
<poly id="poly_24" color="255,0,0,100" fill="1" layer="128.00" shape="500,1500 750,1500 750,1750 500,1750"/>
<poly id="poly_25" color="255,0,0,100" fill="1" layer="128.00" shape="500,1750 750,1750 750,2000 500,2000"/>
<poly id="poly_26" color="255,0,0,100" fill="1" layer="128.00" shape="500,2000 750,2000 750,2250 500,2250"/>
<poly id="poly_27" color="255,0,0,100" fill="1" layer="128.00" shape="750,0 1000,0 1000,250 750,250"/>
<poly id="poly_28" color="255,0,0,100" fill="1" layer="128.00" shape="750,250 1000,250 1000,500 750,500"/>
<poly id="poly_29" color="255,0,0,100" fill="1" layer="128.00" shape="750,500 1000,500 1000,750 750,750"/>
<poly id="poly_30" color="255,0,0,100" fill="1" layer="128.00" shape="750,750 1000,750 1000,1000 750,1000"/>
<poly id="poly_31" color="255,0,0,100" fill="1" layer="128.00" shape="750,1000 1000,1000 1000,1250 750,1250"/>
<poly id="poly_32" color="255,0,0,100" fill="1" layer="128.00" shape="750,1250 1000,1250 1000,1500 750,1500"/>
<poly id="poly_33" color="255,0,0,100" fill="1" layer="128.00" shape="750,1500 1000,1500 1000,1750 750,1750"/>
<poly id="poly_34" color="255,0,0,100" fill="1" layer="128.00" shape="750,1750 1000,1750 1000,2000 750,2000"/>
<poly id="poly_35" color="255,0,0,100" fill="1" layer="128.00" shape="750,2000 1000,2000 1000,2250 750,2250"/>
<poly id="poly_36" color="255,0,0,100" fill="1" layer="128.00" shape="1000,0 1250,0 1250,250 1000,250"/>
<poly id="poly_37" color="255,0,0,100" fill="1" layer="128.00" shape="1000,250 1250,250 1250,500 1000,500"/>
<poly id="poly_38" color="255,0,0,100" fill="1" layer="128.00" shape="1000,500 1250,500 1250,750 1000,750"/>
<poly id="poly_39" color="255,0,0,100" fill="1" layer="128.00" shape="1000,750 1250,750 1250,1000 1000,1000"/>
<poly id="poly_40" color="255,0,0,100" fill="1" layer="128.00" shape="1000,1000 1250,1000 1250,1250 1000,1250"/>
<poly id="poly_41" color="255,0,0,100" fill="1" layer="128.00" shape="1000,1250 1250,1250 1250,1500 1000,1500"/>
<poly id="poly_42" color="255,0,0,100" fill="1" layer="128.00" shape="1000,1500 1250,1500 1250,1750 1000,1750"/>
<poly id="poly_43" color="255,0,0,100" fill="1" layer="128.00" shape="1000,1750 1250,1750 1250,2000 1000,2000"/>
<poly id="poly_44" color="255,0,0,100" fill="1" layer="128.00" shape="1000,2000 1250,2000 1250,2250 1000,2250"/>
<poly id="poly_45" color="255,0,0,100" fill="1" layer="128.00" shape="1250,0 1500,0 1500,250 1250,250"/>
<poly id="poly_46" color="255,0,0,100" fill="1" layer="128.00" shape="1250,250 1500,250 1500,500 1250,500"/>
<poly id="poly_47" color="255,0,0,100" fill="1" layer="128.00" shape="1250,500 1500,500 1500,750 1250,750"/>
<poly id="poly_48" color="255,0,0,100" fill="1" layer="128.00" shape="1250,750 1500,750 1500,1000 1250,1000"/>
<poly id="poly_49" color="255,0,0,100" fill="1" layer="128.00" shape="1250,1000 1500,1000 1500,1250 1250,1250"/>
<poly id="poly_50" color="255,0,0,100" fill="1" layer="128.00" shape="1250,1250 1500,1250 1500,1500 1250,1500"/>
<poly id="poly_51" color="255,0,0,100" fill="1" layer="128.00" shape="1250,1500 1500,1500 1500,1750 1250,1750"/>
<poly id="poly_52" color="255,0,0,100" fill="1" layer="128.00" shape="1250,1750 1500,1750 1500,2000 1250,2000"/>
<poly id="poly_53" color="255,0,0,100" fill="1" layer="128.00" shape="1250,2000 1500,2000 1500,2250 1250,2250"/>
<poly id="poly_54" color="255,0,0,100" fill="1" layer="128.00" shape="1500,0 1750,0 1750,250 1500,250"/>
<poly id="poly_55" color="255,0,0,100" fill="1" layer="128.00" shape="1500,250 1750,250 1750,500 1500,500"/>
<poly id="poly_56" color="255,0,0,100" fill="1" layer="128.00" shape="1500,500 1750,500 1750,750 1500,750"/>
<poly id="poly_57" color="255,0,0,100" fill="1" layer="128.00" shape="1500,750 1750,750 1750,1000 1500,1000"/>
<poly id="poly_58" color="255,0,0,100" fill="1" layer="128.00" shape="1500,1000 1750,1000 1750,1250 1500,1250"/>
<poly id="poly_59" color="255,0,0,100" fill="1" layer="128.00" shape="1500,1250 1750,1250 1750,1500 1500,1500"/>
<poly id="poly_60" color="255,0,0,100" fill="1" layer="128.00" shape="1500,1500 1750,1500 1750,1750 1500,1750"/>
<poly id="poly_61" color="255,0,0,100" fill="1" layer="128.00" shape="1500,1750 1750,1750 1750,2000 1500,2000"/>
<poly id="poly_62" color="255,0,0,100" fill="1" layer="128.00" shape="1500,2000 1750,2000 1750,2250 1500,2250"/>
<poly id="poly_63" color="255,0,0,100" fill="1" layer="128.00" shape="1750,0 2000,0 2000,250 1750,250"/>
<poly id="poly_64" color="255,0,0,100" fill="1" layer="128.00" shape="1750,250 2000,250 2000,500 1750,500"/>
<poly id="poly_65" color="255,0,0,100" fill="1" layer="128.00" shape="1750,500 2000,500 2000,750 1750,750"/>
<poly id="poly_66" color="255,0,0,100" fill="1" layer="128.00" shape="1750,750 2000,750 2000,1000 1750,1000"/>
<poly id="poly_67" color="255,0,0,100" fill="1" layer="128.00" shape="1750,1000 2000,1000 2000,1250 1750,1250"/>
<poly id="poly_68" color="255,0,0,100" fill="1" layer="128.00" shape="1750,1250 2000,1250 2000,1500 1750,1500"/>
<poly id="poly_69" color="255,0,0,100" fill="1" layer="128.00" shape="1750,1500 2000,1500 2000,1750 1750,1750"/>
<poly id="poly_70" color="255,0,0,100" fill="1" layer="128.00" shape="1750,1750 2000,1750 2000,2000 1750,2000"/>
<poly id="poly_71" color="255,0,0,100" fill="1" layer="128.00" shape="1750,2000 2000,2000 2000,2250 1750,2250"/>
<poly id="poly_72" color="255,0,0,100" fill="1" layer="128.00" shape="2000,0 2250,0 2250,250 2000,250"/>
<poly id="poly_73" color="255,0,0,100" fill="1" layer="128.00" shape="2000,250 2250,250 2250,500 2000,500"/>
<poly id="poly_74" color="255,0,0,100" fill="1" layer="128.00" shape="2000,500 2250,500 2250,750 2000,750"/>
<poly id="poly_75" color="255,0,0,100" fill="1" layer="128.00" shape="2000,750 2250,750 2250,1000 2000,1000"/>
<poly id="poly_76" color="255,0,0,100" fill="1" layer="128.00" shape="2000,1000 2250,1000 2250,1250 2000,1250"/>
<poly id="poly_77" color="255,0,0,100" fill="1" layer="128.00" shape="2000,1250 2250,1250 2250,1500 2000,1500"/>
<poly id="poly_78" color="255,0,0,100" fill="1" layer="128.00" shape="2000,1500 2250,1500 2250,1750 2000,1750"/>
<poly id="poly_79" color="255,0,0,100" fill="1" layer="128.00" shape="2000,1750 2250,1750 2250,2000 2000,2000"/>
<poly id="poly_80" color="255,0,0,100" fill="1" layer="128.00" shape="2000,2000 2250,2000 2250,2250 2000,2250"/>
<poly id="poly_81" color="255,0,0,100" fill="1" layer="128.00" shape="2250,0 2500,0 2500,250 2250,250"/>
<poly id="poly_82" color="255,0,0,100" fill="1" layer="128.00" shape="2250,250 2500,250 2500,500 2250,500"/>
<poly id="poly_83" color="255,0,0,100" fill="1" layer="128.00" shape="2250,500 2500,500 2500,750 2250,750"/>
<poly id="poly_84" color="255,0,0,100" fill="1" layer="128.00" shape="2250,750 2500,750 2500,1000 2250,1000"/>
<poly id="poly_85" color="255,0,0,100" fill="1" layer="128.00" shape="2250,1000 2500,1000 2500,1250 2250,1250"/>
<poly id="poly_86" color="255,0,0,100" fill="1" layer="128.00" shape="2250,1250 2500,1250 2500,1500 2250,1500"/>
<poly id="poly_87" color="255,0,0,100" fill="1" layer="128.00" shape="2250,1500 2500,1500 2500,1750 2250,1750"/>
<poly id="poly_88" color="255,0,0,100" fill="1" layer="128.00" shape="2250,1750 2500,1750 2500,2000 2250,2000"/>
<poly id="poly_89" color="255,0,0,100" fill="1" layer="128.00" shape="2250,2000 2500,2000 2500,2250 2250,2250"/>
<poly id="poly_90" color="255,0,0,100" fill="1" layer="128.00" shape="2500,0 2750,0 2750,250 2500,250"/>
<poly id="poly_91" color="255,0,0,100" fill="1" layer="128.00" shape="2500,250 2750,250 2750,500 2500,500"/>
<poly id="poly_92" color="255,0,0,100" fill="1" layer="128.00" shape="2500,500 2750,500 2750,750 2500,750"/>
<poly id="poly_93" color="255,0,0,100" fill="1" layer="128.00" shape="2500,750 2750,750 2750,1000 2500,1000"/>
<poly id="poly_94" color="255,0,0,100" fill="1" layer="128.00" shape="2500,1000 2750,1000 2750,1250 2500,1250"/>
<poly id="poly_95" color="255,0,0,100" fill="1" layer="128.00" shape="2500,1250 2750,1250 2750,1500 2500,1500"/>
<poly id="poly_96" color="255,0,0,100" fill="1" layer="128.00" shape="2500,1500 2750,1500 2750,1750 2500,1750"/>
<poly id="poly_97" color="255,0,0,100" fill="1" layer="128.00" shape="2500,1750 2750,1750 2750,2000 2500,2000"/>
<poly id="poly_98" color="255,0,0,100" fill="1" layer="128.00" shape="2500,2000 2750,2000 2750,2250 2500,2250"/>
<poly id="poly_99" color="255,0,0,100" fill="1" layer="128.00" shape="2750,0 3000,0 3000,250 2750,250"/>
<poly id="poly_100" color="255,0,0,100" fill="1" layer="128.00" shape="2750,250 3000,250 3000,500 2750,500"/>
<poly id="poly_101" color="255,0,0,100" fill="1" layer="128.00" shape="2750,500 3000,500 3000,750 2750,750"/>
<poly id="poly_102" color="255,0,0,100" fill="1" layer="128.00" shape="2750,750 3000,750 3000,1000 2750,1000"/>
<poly id="poly_103" color="255,0,0,100" fill="1" layer="128.00" shape="2750,1000 3000,1000 3000,1250 2750,1250"/>
<poly id="poly_104" color="255,0,0,100" fill="1" layer="128.00" shape="2750,1250 3000,1250 3000,1500 2750,1500"/>
<poly id="poly_105" color="255,0,0,100" fill="1" layer="128.00" shape="2750,1500 3000,1500 3000,1750 2750,1750"/>
<poly id="poly_106" color="255,0,0,100" fill="1" layer="128.00" shape="2750,1750 3000,1750 3000,2000 2750,2000"/>
<poly id="poly_107" color="255,0,0,100" fill="1" layer="128.00" shape="2750,2000 3000,2000 3000,2250 2750,2250"/>
<poly id="poly_108" color="255,0,0,100" fill="1" layer="128.00" shape="3000,0 3250,0 3250,250 3000,250"/>
<poly id="poly_109" color="255,0,0,100" fill="1" layer="128.00" shape="3000,250 3250,250 3250,500 3000,500"/>
<poly id="poly_110" color="255,0,0,100" fill="1" layer="128.00" shape="3000,500 3250,500 3250,750 3000,750"/>
<poly id="poly_111" color="255,0,0,100" fill="1" layer="128.00" shape="3000,750 3250,750 3250,1000 3000,1000"/>
<poly id="poly_112" color="255,0,0,100" fill="1" layer="128.00" shape="3000,1000 3250,1000 3250,1250 3000,1250"/>
<poly id="poly_113" color="255,0,0,100" fill="1" layer="128.00" shape="3000,1250 3250,1250 3250,1500 3000,1500"/>
<poly id="poly_114" color="255,0,0,100" fill="1" layer="128.00" shape="3000,1500 3250,1500 3250,1750 3000,1750"/>
<poly id="poly_115" color="255,0,0,100" fill="1" layer="128.00" shape="3000,1750 3250,1750 3250,2000 3000,2000"/>
<poly id="poly_116" color="255,0,0,100" fill="1" layer="128.00" shape="3000,2000 3250,2000 3250,2250 3000,2250"/>
<poly id="poly_117" color="255,0,0,100" fill="1" layer="128.00" shape="3250,0 3500,0 3500,250 3250,250"/>
<poly id="poly_118" color="255,0,0,100" fill="1" layer="128.00" shape="3250,250 3500,250 3500,500 3250,500"/>
<poly id="poly_119" color="255,0,0,100" fill="1" layer="128.00" shape="3250,500 3500,500 3500,750 3250,750"/>
<poly id="poly_120" color="255,0,0,100" fill="1" layer="128.00" shape="3250,750 3500,750 3500,1000 3250,1000"/>
<poly id="poly_121" color="255,0,0,100" fill="1" layer="128.00" shape="3250,1000 3500,1000 3500,1250 3250,1250"/>
<poly id="poly_122" color="255,0,0,100" fill="1" layer="128.00" shape="3250,1250 3500,1250 3500,1500 3250,1500"/>
<poly id="poly_123" color="255,0,0,100" fill="1" layer="128.00" shape="3250,1500 3500,1500 3500,1750 3250,1750"/>
<poly id="poly_124" color="255,0,0,100" fill="1" layer="128.00" shape="3250,1750 3500,1750 3500,2000 3250,2000"/>
<poly id="poly_125" color="255,0,0,100" fill="1" layer="128.00" shape="3250,2000 3500,2000 3500,2250 3250,2250"/>
</additional>
